/*--------------------------------*- C++ -*----------------------------------*\
| =========                 |                                                 |
| \\      /  F ield         | OpenFOAM: The Open Source CFD Toolbox           |
|  \\    /   O peration     | Version:  v2106                                 |
|   \\  /    A nd           | Website:  www.openfoam.com                      |
|    \\/     M anipulation  |                                                 |
\*---------------------------------------------------------------------------*/
FoamFile
{
    version     2.0;
    format      ascii;
    arch        "LSB;label=32;scalar=64";
    class       dictionary;
    location    "1e-06/fluid";
    object      microlayerProperties;
}
// * * * * * * * * * * * * * * * * * * * * * * * * * * * * * * * * * * * * * //

initialMicrolayerThicknessModel landauLevich;

bubbleRadius    3.19172063e-05;

bubbleExpansionVelocity 31.9172063;

bubbleExpansionAcceleration 0;

meniscusSlope   729600.8377;

meniscusCurvature 729600.8377;

initialMicrolayerThickness 5.218833018e-07;


// ************************************************************************* //
