/*--------------------------------*- C++ -*----------------------------------*\
| =========                 |                                                 |
| \\      /  F ield         | OpenFOAM: The Open Source CFD Toolbox           |
|  \\    /   O peration     | Version:  plus                                  |
|   \\  /    A nd           | Web:      www.OpenFOAM.com                      |
|    \\/     M anipulation  |                                                 |
\*---------------------------------------------------------------------------*/
FoamFile
{
    version     2.0;
    format      ascii;
    class       volScalarField;
    object      p;
}
// * * * * * * * * * * * * * * * * * * * * * * * * * * * * * * * * * * * * * //

dimensions      [1 -1 -2 0 0 0 0];

internalField   uniform 101300;

boundaryField
{
  right
  {
      type            fixedFluxPressure;
  }

  bottom
  {
      type            fixedFluxPressure;
  }

  axis
  {
      type            empty;
  }

  solid_to_fluid
  {
      type            fixedFluxPressure;
  }
  
  front
  {
      type	      wedge;
  }
  
  back
  {
      type	      wedge;
  }
}

// ************************************************************************* //

