/*--------------------------------*- C++ -*----------------------------------*\
| =========                 |                                                 |
| \\      /  F ield         | OpenFOAM: The Open Source CFD Toolbox           |
|  \\    /   O peration     | Version:  v2106                                 |
|   \\  /    A nd           | Website:  www.openfoam.com                      |
|    \\/     M anipulation  |                                                 |
\*---------------------------------------------------------------------------*/
FoamFile
{
    version     2.0;
    format      ascii;
    class       dictionary;
    object      fvSolution;
}
// * * * * * * * * * * * * * * * * * * * * * * * * * * * * * * * * * * * * * //

solvers
{
    "alpha.*"
    {
        isoFaceTol      1e-8;
        surfCellTol     1e-8;
        nAlphaBounds    3;
        snapTol         1e-12;
        clip            true;
        writeSurfCells  false;
        writeBoundedCells false;
        writeIsoFaces   false;

       
        nAlphaSubCycles 3;    
        cAlpha          1;    
        
        advectionScheme isoAdvection;
        reconstructionScheme plicRDF;
        vof2IsoTol      1e-8;

    }

    psiFinal
    {
        solver           PCG;
        preconditioner   DIC;
        tolerance        1e-7;
        relTol           0.00;
    }
    
    rhoCpLFinal
    {
        solver           PCG;
        preconditioner   DIC;
        tolerance        1e-7;
        relTol           0.00;
    }

    rhoCpVFinal
    {
        solver           PCG;
        preconditioner   DIC;
        tolerance        1e-7;
        relTol           0.00;
    }

    rho
    {
	solver          GAMG;
        tolerance	1e-07;
        relTol          0.01;
        smoother        DIC;
        cacheAgglomeration no;
    }

    rhoFinal
    {
        $rho;
        tolerance       1e-7;
        relTol          0;
    }

    p_rgh
    {
        solver           GAMG;
        tolerance        1e-7;
        relTol          0.005;
        smoother        DIC;
        cacheAgglomeration no;
    }

    p_rghFinal
    {
        $p_rgh;
        tolerance        1e-7;
        relTol           0;
    }

    "(U|h|T.*|k|epsilon|R)"
    {
        solver           PBiCGStab;
        preconditioner   DILU;
        tolerance        1e-6;
        relTol           0.01;
    }

    "(U|h|T.*|k|epsilon|R)Final"
    {
        $U;
        tolerance        1e-7;
        relTol           0;
    }

}

PIMPLE
{	
    momentumPredictor	yes;
    nOuterCorrectors    1;
    nCorrectors         3;
    nNonOrthogonalCorrectors 0;
}

relaxationFactors
{
    equations
    {
        ".*"            1;
        "h.*"           1;
        "U.*"           1;
    }
}


// ************************************************************************* //
