/*--------------------------------*- C++ -*----------------------------------*\
| =========                 |                                                 |
| \\      /  F ield         | OpenFOAM: The Open Source CFD Toolbox           |
|  \\    /   O peration     | Version:  v2106                                 |
|   \\  /    A nd           | Website:  www.openfoam.com                      |
|    \\/     M anipulation  |                                                 |
\*---------------------------------------------------------------------------*/
FoamFile
{
    version     2.0;
    format      ascii;
    arch        "LSB;label=32;scalar=64";
    class       polyBoundaryMesh;
    location    "constant/polyMesh";
    object      boundary;
}
// * * * * * * * * * * * * * * * * * * * * * * * * * * * * * * * * * * * * * //

6
(
    front
    {
        type            wedge;
        inGroups        1(wedge);
        nFaces          25600;
        startFace       50800;
    }
    back
    {
        type            wedge;
        inGroups        1(wedge);
        nFaces          25600;
        startFace       76400;
    }
    right
    {
        type            patch;
        nFaces          320;
        startFace       102000;
    }
    bottom
    {
        type            patch;
        nFaces          80;
        startFace       102320;
    }
    top
    {
        type            patch;
        nFaces          80;
        startFace       102400;
    }
    axis
    {
        type            empty;
        inGroups        1(empty);
        nFaces          320;
        startFace       102480;
    }
)

// ************************************************************************* //
