/*--------------------------------*- C++ -*----------------------------------*\
| =========                 |                                                 |
| \\      /  F ield         | OpenFOAM: The Open Source CFD Toolbox           |
|  \\    /   O peration     | Version:  v2306                                 |
|   \\  /    A nd           | Website:  www.openfoam.com                      |
|    \\/     M anipulation  |                                                 |
\*---------------------------------------------------------------------------*/
FoamFile
{
    version     2.0;
    format      ascii;
    class       volScalarField;
    object      p;
}
// * * * * * * * * * * * * * * * * * * * * * * * * * * * * * * * * * * * * * //

dimensions      [1 -1 -2 0 0 0 0];

#include "../../constant/runParams"

internalField   uniform $psat;

boundaryField
{
    fluid_to_solid
    {
        type            calculated;
        value           $internalField;
    }

    top
    {
        type            calculated;
        value           $internalField;
    }
    
    right
    {
        type            calculated;
        value           $internalField;
    }
    
    front
    {
        type            wedge;
    }
    
    back
    {
        type            wedge;
    }
    
    axis
    {
    	type		empty;
    }
}

// ************************************************************************* //

